309

Au -9.9681E-02  3.4571E-02  4.6467E-02
Au -8.0343E-02 -8.1187E-03  2.4213E+00
Au  1.6642E-02 -6.8274E-03 -2.5365E+00
Au  5.3281E-01 -2.0380E+00  1.2405E+00
Au -1.7732E+00 -1.2827E+00  1.2337E+00
Au -1.9141E+00  1.3141E+00  1.2367E+00
Au  6.2206E-01  2.0237E+00  1.2420E+00
Au  2.1192E+00  1.4837E-02  1.2950E+00
Au  2.1400E+00 -5.2596E-02 -1.1872E+00
Au  6.4309E-01  1.8755E+00 -1.2533E+00
Au -1.7626E+00  1.2595E+00 -1.2921E+00
Au -1.6924E+00 -1.3544E+00 -1.2568E+00
Au  7.5266E-01 -2.0854E+00 -1.2753E+00
Au  2.9540E+00 -2.1123E+00  6.7476E-03
Au -1.1965E+00 -3.4513E+00 -3.5132E-02
Au -3.5945E+00 -1.6618E-02  3.8587E-03
Au -1.1097E+00  3.4164E+00  1.1404E-01
Au  2.7839E+00  2.0154E+00 -2.9637E-02
Au  6.2781E-01 -1.9785E+00  3.8247E+00
Au -1.7124E+00 -1.3164E+00  3.7916E+00
Au -1.8780E+00  1.2522E+00  3.7096E+00
Au  6.2128E-01  2.1241E+00  3.7727E+00
Au  1.9994E+00 -4.6267E-02  3.6959E+00
Au  2.0410E+00  3.9801E-03 -3.7961E+00
Au  5.8352E-01  2.1009E+00 -3.8284E+00
Au -1.8138E+00  1.2457E+00 -3.8240E+00
Au -1.7972E+00 -1.1807E+00 -3.8307E+00
Au  7.5018E-01 -2.2198E+00 -3.8916E+00
Au  2.8351E+00 -1.9993E+00  2.5051E+00
Au -1.1625E+00 -3.3547E+00  2.4406E+00
Au -3.5238E+00 -6.2372E-02  2.4770E+00
Au -1.1867E+00  3.2397E+00  2.5535E+00
Au  2.7529E+00  2.1767E+00  2.5285E+00
Au  2.8315E+00  2.0318E+00 -2.5204E+00
Au -1.0892E+00  3.4408E+00 -2.4182E+00
Au -3.5430E+00 -6.2075E-02 -2.4629E+00
Au -9.4297E-01 -3.2924E+00 -2.5142E+00
Au  2.8904E+00 -1.9541E+00 -2.5279E+00
Au  1.2249E+00 -4.0954E+00  5.6802E-03
Au -3.5399E+00 -2.4616E+00 -8.0294E-02
Au -3.3976E+00  2.5812E+00 -7.8944E-02
Au  1.2798E+00  4.1021E+00  7.9058E-02
Au  4.2793E+00 -4.1941E-03 -8.3909E-02
Au -8.0850E-02  6.2641E-02  5.0317E+00
Au -1.1253E-01 -2.2508E-02 -5.1167E+00
Au  1.2368E+00 -3.9456E+00  2.5097E+00
Au -3.5433E+00 -2.5109E+00  2.4292E+00
Au -3.5768E+00  2.5981E+00  2.5560E+00
Au  1.1339E+00  4.0757E+00  2.5387E+00
Au  4.1804E+00  2.1083E-02  2.4942E+00
Au  4.2917E+00  7.3876E-02 -2.6428E+00
Au  1.1988E+00  4.0109E+00 -2.3075E+00
Au -3.4306E+00  2.6314E+00 -2.4520E+00
Au -3.4205E+00 -2.4893E+00 -2.4920E+00
Au  1.4993E+00 -4.1497E+00 -2.4616E+00
Au  5.0333E+00 -2.2360E+00  1.2858E+00
Au  3.5786E+00 -4.1616E+00  1.2343E+00
Au -4.5793E-01 -5.3262E+00  1.2960E+00
Au -2.9667E+00 -4.7633E+00  1.2128E+00
Au -5.3623E+00 -1.2776E+00  1.1860E+00
Au -5.2797E+00  1.3744E+00  1.3194E+00
Au -2.7408E+00  4.7077E+00  1.2484E+00
Au -4.9486E-01  5.4789E+00  1.2620E+00
Au  3.5541E+00  4.1084E+00  1.1263E+00
Au  5.0052E+00  2.1176E+00  1.1683E+00
Au  5.1981E+00 -2.1361E+00 -1.2131E+00
Au  3.5474E+00 -4.0459E+00 -1.2740E+00
Au -3.9489E-01 -5.5826E+00 -1.1453E+00
Au -2.8135E+00 -4.6702E+00 -1.2452E+00
Au -5.3907E+00 -1.2271E+00 -1.4164E+00
Au -5.3010E+00  1.3149E+00 -1.3431E+00
Au -2.8905E+00  4.7278E+00 -1.1629E+00
Au -4.8893E-01  5.3834E+00 -1.2247E+00
Au  3.5138E+00  4.0680E+00 -1.3132E+00
Au  5.1151E+00  2.1072E+00 -1.2422E+00
Au  2.7635E+00 -2.0229E+00  5.1002E+00
Au -1.1200E+00 -3.2922E+00  5.1156E+00
Au -3.4183E+00  1.0281E-02  5.0333E+00
Au -1.0613E+00  3.3289E+00  5.0972E+00
Au  2.8575E+00  2.0067E+00  4.9940E+00
Au  2.7807E+00  2.0500E+00 -5.1177E+00
Au -1.1088E+00  3.2757E+00 -5.2765E+00
Au -3.5867E+00 -6.1804E-02 -5.0381E+00
Au -1.1181E+00 -3.3947E+00 -5.0620E+00
Au  2.8787E+00 -2.0880E+00 -5.0098E+00
Au  7.0708E-01 -2.0311E+00  6.4435E+00
Au -1.6641E+00 -1.3612E+00  6.3380E+00
Au -1.7294E+00  1.2643E+00  6.3380E+00
Au  6.6842E-01  1.9933E+00  6.2321E+00
Au  2.1633E+00  9.5108E-02  6.3632E+00
Au  2.0369E+00 -1.9184E-01 -6.2039E+00
Au  6.3958E-01  2.0360E+00 -6.3233E+00
Au -1.8486E+00  1.3653E+00 -6.4262E+00
Au -1.8475E+00 -1.2638E+00 -6.3566E+00
Au  5.3856E-01 -2.1737E+00 -6.3224E+00
Au  1.2767E+00 -4.0224E+00  5.1442E+00
Au -3.5710E+00 -2.4042E+00  4.9665E+00
Au -3.4994E+00  2.6465E+00  5.1389E+00
Au  1.3654E+00  4.0537E+00  5.0880E+00
Au  4.2446E+00 -6.2469E-02  5.0802E+00
Au  4.1997E+00 -3.7398E-03 -5.0728E+00
Au  1.2508E+00  4.1243E+00 -5.1097E+00
Au -3.5264E+00  2.4034E+00 -5.0477E+00
Au -3.4642E+00 -2.4684E+00 -5.1133E+00
Au  1.4171E+00 -4.1776E+00 -5.0085E+00
Au  5.1212E+00 -1.9265E+00  3.7801E+00
Au  3.4096E+00 -4.1063E+00  3.7313E+00
Au -4.3749E-01 -5.2985E+00  3.7348E+00
Au -2.8946E+00 -4.5866E+00  3.6628E+00
Au -5.3640E+00 -1.2187E+00  3.6828E+00
Au -5.1495E+00  1.3451E+00  3.8244E+00
Au -2.7611E+00  4.5656E+00  3.7145E+00
Au -3.9127E-01  5.4224E+00  3.8380E+00
Au  3.6083E+00  3.9856E+00  3.7936E+00
Au  5.0445E+00  2.0432E+00  3.7582E+00
Au  5.0358E+00  2.0654E+00 -3.7773E+00
Au  3.4229E+00  4.1171E+00 -3.8141E+00
Au -4.6270E-01  5.3861E+00 -3.6713E+00
Au -2.8082E+00  4.5356E+00 -3.8626E+00
Au -5.2126E+00  1.2382E+00 -3.7955E+00
Au -5.4027E+00 -1.4055E+00 -3.8074E+00
Au -2.6547E+00 -4.5353E+00 -3.6402E+00
Au -3.0308E-01 -5.4308E+00 -3.6020E+00
Au  3.6538E+00 -4.0987E+00 -3.6960E+00
Au  5.0666E+00 -1.9765E+00 -3.6792E+00
Au  2.1330E+00 -6.0873E+00  1.1218E+00
Au -5.2194E+00 -3.9116E+00  1.2633E+00
Au -5.2020E+00  3.8460E+00  1.2912E+00
Au  1.9033E+00  6.0452E+00  1.2849E+00
Au  6.3856E+00 -4.6247E-02  1.1797E+00
Au  2.2481E+00 -6.1909E+00 -1.2164E+00
Au -5.1541E+00 -3.8417E+00 -1.1071E+00
Au -5.2307E+00  3.8693E+00 -1.3373E+00
Au  1.9294E+00  6.0734E+00 -1.2281E+00
Au  6.4050E+00 -1.1349E-01 -1.3769E+00
Au  1.1249E-01 -5.3376E-03  7.6287E+00
Au -6.2194E-02 -5.8360E-02 -7.6258E+00
Au  1.8996E+00 -5.9637E+00  3.7785E+00
Au -5.2110E+00 -3.8153E+00  3.6712E+00
Au -5.1849E+00  3.7998E+00  3.7986E+00
Au  1.9757E+00  6.0243E+00  3.7161E+00
Au  6.4195E+00  4.9972E-02  3.6274E+00
Au  6.4659E+00  1.0479E-01 -3.7338E+00
Au  1.9620E+00  6.0793E+00 -3.5775E+00
Au -5.0376E+00  3.8831E+00 -3.8114E+00
Au -5.0503E+00 -3.7893E+00 -3.7561E+00
Au  2.1414E+00 -6.1478E+00 -3.6902E+00
Au  5.7974E+00 -4.2270E+00  1.7447E-02
Au -2.2976E+00 -6.7314E+00  1.4831E-02
Au -6.9266E+00  6.6949E-02 -2.1651E-01
Au -2.2154E+00  6.7538E+00 -4.7046E-02
Au  5.7347E+00  4.1128E+00 -9.2095E-02
Au  5.6341E+00 -4.1055E+00  2.6612E+00
Au -2.2099E+00 -6.6367E+00  2.4120E+00
Au -6.9414E+00  1.8202E-02  2.3901E+00
Au -2.1617E+00  6.6019E+00  2.4738E+00
Au  5.6950E+00  4.1806E+00  2.5789E+00
Au  5.7334E+00 -4.0669E+00 -2.4047E+00
Au -2.1050E+00 -6.7324E+00 -2.2886E+00
Au -7.0761E+00 -1.3404E-01 -2.7049E+00
Au -2.2090E+00  6.6481E+00 -2.6590E+00
Au  5.6478E+00  4.1148E+00 -2.5764E+00
Au  7.1593E+00 -2.1215E+00  7.8472E-02
Au  4.4672E+00 -6.1488E+00  1.5720E-01
Au  4.9845E-01 -7.4715E+00 -4.3785E-02
Au -4.5666E+00 -5.9214E+00 -1.4778E-01
Au -7.0060E+00 -2.6257E+00 -1.3241E-02
Au -6.9682E+00  2.6197E+00  6.5554E-02
Au -4.5371E+00  5.9454E+00  2.5913E-01
Au  2.7248E-01  7.5880E+00  1.3000E-01
Au  4.0902E+00  6.2283E+00 -3.5937E-02
Au  7.1974E+00  1.9750E+00  3.1875E-02
Au  7.1814E+00 -1.9903E+00  2.4171E+00
Au  4.1637E+00 -6.3057E+00  2.6609E+00
Au  1.6376E-01 -7.3083E+00  2.3559E+00
Au -4.6144E+00 -5.8925E+00  2.4500E+00
Au -6.9531E+00 -2.5458E+00  2.4880E+00
Au -6.9256E+00  2.6273E+00  2.6425E+00
Au -4.5466E+00  6.0107E+00  2.6131E+00
Au  3.3902E-01  7.4510E+00  2.6344E+00
Au  4.1405E+00  6.0006E+00  2.5465E+00
Au  7.1754E+00  2.2460E+00  2.4571E+00
Au  7.2164E+00 -2.1121E+00 -2.6321E+00
Au  4.3145E+00 -6.1382E+00 -2.3487E+00
Au  5.2037E-01 -7.4309E+00 -2.4246E+00
Au -4.3943E+00 -5.8120E+00 -2.6004E+00
Au -6.9439E+00 -2.7842E+00 -2.5716E+00
Au -6.9520E+00  2.7621E+00 -2.5969E+00
Au -4.5182E+00  5.9113E+00 -2.4475E+00
Au  2.7473E-01  7.4413E+00 -2.4484E+00
Au  4.1468E+00  6.2139E+00 -2.4864E+00
Au  7.1581E+00  2.0464E+00 -2.3389E+00
Au  2.8474E+00 -2.0455E+00  7.6516E+00
Au -1.3633E+00 -3.5111E+00  7.5641E+00
Au -3.3038E+00 -1.0037E-01  7.5842E+00
Au -9.2858E-01  3.3212E+00  7.4162E+00
Au  2.7152E+00  2.1769E+00  7.5641E+00
Au  2.8167E+00  1.8937E+00 -7.4557E+00
Au -1.1744E+00  3.3982E+00 -7.7982E+00
Au -3.4185E+00  2.8050E-02 -7.5493E+00
Au -1.0884E+00 -3.3639E+00 -7.5821E+00
Au  2.7821E+00 -2.1534E+00 -7.4003E+00
Au  5.0122E+00 -2.0681E+00  6.3158E+00
Au  3.4343E+00 -4.1107E+00  6.3410E+00
Au -4.8548E-01 -5.4130E+00  6.4394E+00
Au -3.1349E+00 -4.5757E+00  6.1186E+00
Au -5.2510E+00 -1.2336E+00  6.1737E+00
Au -5.2044E+00  1.3199E+00  6.2821E+00
Au -2.7338E+00  4.6573E+00  6.4210E+00
Au -3.6603E-01  5.5738E+00  6.3999E+00
Au  3.5928E+00  4.1967E+00  6.2723E+00
Au  5.0232E+00  2.0439E+00  6.3327E+00
Au  4.9904E+00  2.1560E+00 -6.2154E+00
Au  3.3512E+00  4.1749E+00 -6.3221E+00
Au -3.8930E-01  5.4098E+00 -6.3011E+00
Au -2.8442E+00  4.4333E+00 -6.4323E+00
Au -5.3830E+00  1.1283E+00 -6.3590E+00
Au -5.1529E+00 -1.2550E+00 -6.4916E+00
Au -2.7747E+00 -4.8056E+00 -6.1753E+00
Au -3.3985E-01 -5.4431E+00 -6.0333E+00
Au  3.6774E+00 -4.2718E+00 -6.2589E+00
Au  5.0566E+00 -2.1686E+00 -6.2803E+00
Au  1.1175E+00 -4.0127E+00  7.5291E+00
Au -3.5636E+00 -2.5256E+00  7.4115E+00
Au -3.4029E+00  2.2651E+00  7.5533E+00
Au  1.2931E+00  4.1738E+00  7.5565E+00
Au  4.1850E+00  1.5599E-02  7.5306E+00
Au  4.2513E+00  1.0137E-01 -7.4618E+00
Au  1.1712E+00  4.0773E+00 -7.5108E+00
Au -3.5804E+00  2.4975E+00 -7.5174E+00
Au -3.4268E+00 -2.6625E+00 -7.4616E+00
Au  1.4560E+00 -4.1390E+00 -7.3694E+00
Au  5.5293E+00 -4.0680E+00  4.9840E+00
Au -2.1568E+00 -6.3585E+00  4.9709E+00
Au -6.9659E+00  2.5373E-02  4.7702E+00
Au -2.1869E+00  6.5299E+00  5.2147E+00
Au  5.6000E+00  3.9960E+00  5.0892E+00
Au  5.4407E+00  4.0549E+00 -5.0950E+00
Au -2.1855E+00  6.4324E+00 -5.0818E+00
Au -7.0084E+00  3.6453E-02 -5.0482E+00
Au -2.1408E+00 -6.5706E+00 -4.7480E+00
Au  5.6402E+00 -4.0662E+00 -4.9922E+00
Au  2.8930E+00 -8.0463E+00  9.2957E-02
Au -6.9274E+00 -5.0544E+00  9.5953E-02
Au -6.8254E+00  5.0462E+00  1.3065E-01
Au  2.6774E+00  8.1230E+00  9.8211E-02
Au  8.4041E+00 -1.3690E-01 -2.3782E-01
Au  6.6960E-01 -2.1081E+00  8.7871E+00
Au -1.6397E+00 -1.2734E+00  8.6816E+00
Au -1.6134E+00  1.4043E+00  8.7446E+00
Au  4.9945E-01  2.2254E+00  8.7691E+00
Au  2.1101E+00  2.4115E-02  8.8683E+00
Au  2.1052E+00 -2.0436E-01 -8.7198E+00
Au  5.4119E-01  2.0430E+00 -8.7541E+00
Au -1.7581E+00  1.1683E+00 -9.0004E+00
Au -1.6768E+00 -1.4118E+00 -8.8296E+00
Au  7.5180E-01 -2.1606E+00 -8.7315E+00
Au  1.9110E+00 -6.0584E+00  6.2423E+00
Au -5.3572E+00 -3.7309E+00  6.1194E+00
Au -5.0769E+00  4.0703E+00  6.2855E+00
Au  1.9401E+00  6.0745E+00  6.2289E+00
Au  6.4764E+00 -3.3766E-02  6.1902E+00
Au  6.4367E+00 -8.2935E-02 -6.3741E+00
Au  1.9436E+00  6.1002E+00 -6.2938E+00
Au -5.2007E+00  3.8538E+00 -6.2140E+00
Au -5.1797E+00 -3.8032E+00 -6.2567E+00
Au  2.0189E+00 -6.1565E+00 -6.0928E+00
Au  7.1668E+00 -1.8592E+00  4.9387E+00
Au  4.0288E+00 -6.1136E+00  4.9153E+00
Au  1.8465E-01 -7.2328E+00  4.9853E+00
Au -4.7940E+00 -5.8854E+00  4.7778E+00
Au -7.0220E+00 -2.4186E+00  4.9068E+00
Au -6.8103E+00  2.6273E+00  5.1584E+00
Au -4.4962E+00  5.8238E+00  5.0143E+00
Au  3.1962E-01  7.4906E+00  5.1095E+00
Au  4.1205E+00  6.0791E+00  5.0384E+00
Au  7.1081E+00  2.1989E+00  4.9902E+00
Au  7.2020E+00  1.8416E+00 -5.1482E+00
Au  3.9981E+00  6.1189E+00 -4.8140E+00
Au  2.5712E-01  7.3005E+00 -4.8779E+00
Au -4.4795E+00  5.8670E+00 -4.8055E+00
Au -6.8393E+00  2.3845E+00 -5.0485E+00
Au -6.8546E+00 -2.3916E+00 -5.2591E+00
Au -4.6126E+00 -5.8118E+00 -4.9978E+00
Au  4.8758E-01 -7.4857E+00 -4.8482E+00
Au  4.2030E+00 -6.1413E+00 -4.8560E+00
Au  7.0692E+00 -2.0290E+00 -5.0219E+00
Au  2.4138E+00 -8.0144E+00  2.4505E+00
Au -6.8938E+00 -4.9581E+00  2.3976E+00
Au -6.7591E+00  5.1797E+00  2.5413E+00
Au  2.6862E+00  7.8997E+00  2.5491E+00
Au  8.5230E+00  1.5702E-02  2.2508E+00
Au  2.9351E+00 -8.0752E+00 -2.5545E+00
Au -6.5660E+00 -5.3516E+00 -2.1396E+00
Au -6.8312E+00  5.1685E+00 -2.7184E+00
Au  2.6385E+00  8.0738E+00 -2.2336E+00
Au  8.4378E+00  4.5314E-02 -2.6562E+00
Au -1.8957E-02  1.5772E-01  9.8984E+00
Au  5.4893E-02  1.8412E-03 -9.9003E+00
Au  2.5119E+00 -7.9348E+00  4.6837E+00
Au -6.8712E+00 -4.9232E+00  4.8088E+00
Au -6.7746E+00  4.9517E+00  4.8547E+00
Au  2.6614E+00  7.9280E+00  4.9280E+00
Au  8.2964E+00  1.6759E-01  4.8839E+00
Au  8.4478E+00 -1.3945E-01 -4.9884E+00
Au  2.5482E+00  7.9443E+00 -4.6496E+00
Au -6.6841E+00  5.1673E+00 -4.9789E+00
Au -6.7787E+00 -4.7231E+00 -4.8541E+00
Au  2.7942E+00 -8.0255E+00 -4.9245E+00
